dynawo/sources/Solvers/FixedTimeStep/SolverSIM/test/jobs/solverTestDelta.iidm
<?xml version="1.0" encoding="ISO-8859-1" standalone="no"?>
<!--
    Copyright (c) 2015-2019, RTE (http://www.rte-france.com)
    See AUTHORS.txt
    All rights reserved.
    This Source Code Form is subject to the terms of the Mozilla Public
    License, v. 2.0. If a copy of the MPL was not distributed with this
    file, you can obtain one at http://mozilla.org/MPL/2.0/.
    SPDX-License-Identifier: MPL-2.0

    This file is part of Dynawo, a hybrid C++/Modelica open source time domain
    simulation tool for power systems.
-->
<network xmlns="http://www.itesla_project.eu/schema/iidm/1_0" id="testCSPR" caseDate="2017-07-25T09:39:00.000+01:00" forecastDistance="0" sourceFormat="NF">
  <substation id="_BUS___1_SS" name="undefined" country="AF">
    <voltageLevel id="_BUS___1" nominalV="380" topologyKind="BUS_BREAKER">
      <busBreakerTopology>
        <bus id="_BUS___11" v="390.7399770666463" angle="-3.3050095214880555"/>
      </busBreakerTopology>
    </voltageLevel>
  </substation>
  <substation id="_BUS___2_site" name="undefined" country="AF">
    <voltageLevel id="_BUS___2" nominalV="380" lowVoltageLimit="0" topologyKind="BUS_BREAKER">
      <busBreakerTopology>
        <bus id="_BUS___21" v="390.48015721280433" angle="-6.7867020970046736"/>
      </busBreakerTopology>
      <load id="_BUS___2_L" loadType="UNDEFINED" p0="1000" q0="300" bus="_BUS___21" connectableBus="_BUS___21" p="1000" q="300"/>
    </voltageLevel>
  </substation>
  <substation id="VL_site" name="undefined" country="AF">
    <voltageLevel id="VL" nominalV="380" topologyKind="BUS_BREAKER">
      <property name="siteInit" value="undefined"/>
      <busBreakerTopology>
        <bus id="TN" v="415.0001220703125" angle="0"/>
      </busBreakerTopology>
      <generator id="GEN" energySource="HYDRO" minP="300" maxP="2000" voltageRegulatorOn="true" targetP="1000" targetQ="0" targetV="415.0001220703125" bus="TN" connectableBus="TN" p="-1021.0785447964267" q="-383.08791684564494">
        <property name="genreCvg" value="POMPAGE"/>
        <reactiveCapabilityCurve>
          <point p="300" minQ="-9998" maxQ="9999"/>
          <point p="2000" minQ="-9998" maxQ="9999"/>
        </reactiveCapabilityCurve>
      </generator>
    </voltageLevel>
  </substation>
  <line id="_BUS___1__BUS___2_1" r="1.5000001192092896" x="10" g1="0" b1="1.9999999949504854e-06" g2="0" b2="1.9999999949504854e-06" voltageLevelId1="_BUS___1" bus1="_BUS___11" connectableBus1="_BUS___11" voltageLevelId2="_BUS___2" bus2="_BUS___21" connectableBus2="_BUS___21" p1="1010.7212885748779" q1="370.84590463856875" p2="-999.99999999606734" q2="-299.99999999643478">
    <currentLimits1 permanentLimit="2000.0006103515625"/>
    <currentLimits2 permanentLimit="2000.0006103515625"/>
  </line>
  <line id="_BUS___1__BUS___2_2" r="1.5000001192092896" x="10" g1="0" b1="1.9999999949504854e-06" g2="0" b2="1.9999999949504854e-06" voltageLevelId1="_BUS___1" bus1="_BUS___11" connectableBus1="_BUS___11" voltageLevelId2="_BUS___2" bus2="_BUS___21" connectableBus2="_BUS___21" p1="1010.7212885748779" q1="370.84590463856875" p2="-999.99999999606734" q2="-299.99999999643478">
    <currentLimits1 permanentLimit="2000.0006103515625"/>
    <currentLimits2 permanentLimit="2000.0006103515625"/>
  </line>
  <line id="TN__BUS___11_1" r="1.5000001192092896" x="10" g1="0" b1="1.9999999949504854e-06" g2="0" b2="1.9999999949504854e-06" voltageLevelId1="VL" bus1="TN" connectableBus1="TN" voltageLevelId2="_BUS___1" bus2="_BUS___11" connectableBus2="_BUS___11" p1="1021.0824068867491" q1="383.08791684564494" p2="-1010.7212885766298" q2="-314.68264788437955">
    <currentLimits1 permanentLimit="2000.0006103515625"/>
    <currentLimits2 permanentLimit="2000.0006103515625"/>
  </line>
</network>
